Version 4
SHEET 1 880 680
WIRE 384 32 224 32
WIRE 224 80 224 32
WIRE 128 192 16 192
WIRE 224 192 224 160
WIRE 384 208 384 32
WIRE 16 224 16 192
WIRE 128 272 128 192
WIRE 176 272 128 272
WIRE 16 320 16 304
WIRE 224 320 224 288
WIRE 224 320 16 320
WIRE 384 320 384 288
WIRE 384 320 224 320
WIRE 224 352 224 320
FLAG 224 352 0
SYMBOL nmos 176 192 R0
SYMATTR InstName M1
SYMBOL voltage 16 208 R0
SYMATTR InstName Vgs
SYMATTR Value 41.5
SYMBOL voltage 384 192 R0
SYMATTR InstName V1
SYMATTR Value 10
SYMBOL res 208 64 R0
SYMATTR InstName R1
SYMATTR Value 500
TEXT -24 416 Left 2 !.model nmos NMOS(kp=100u, vt0=0.5, L=10u, W=20u)
TEXT -8 464 Left 2 !.op
