Version 4
SHEET 1 880 680
WIRE 400 16 224 16
WIRE 528 16 400 16
WIRE 624 16 528 16
WIRE 224 96 224 16
WIRE 400 96 400 16
WIRE 528 96 528 16
WIRE 624 96 624 16
WIRE 176 176 16 176
WIRE 16 208 16 176
WIRE 352 208 352 176
WIRE 352 208 16 208
WIRE 16 224 16 208
WIRE 224 224 224 192
WIRE 224 224 112 224
WIRE 400 224 400 192
WIRE 400 224 224 224
WIRE 224 288 224 224
WIRE 16 336 16 304
WIRE 112 336 112 224
WIRE 112 336 16 336
WIRE 224 384 224 368
WIRE 528 384 528 176
WIRE 528 384 224 384
WIRE 624 384 624 176
WIRE 624 384 528 384
WIRE 624 416 624 384
FLAG 624 416 0
SYMBOL nmos 176 96 R0
SYMATTR InstName M1
SYMBOL voltage 16 208 R0
SYMATTR InstName Vgs
SYMATTR Value 5
SYMBOL voltage 224 272 R0
WINDOW 123 0 0 Left 0
WINDOW 39 0 0 Left 0
SYMATTR InstName V1
SYMATTR Value -25
SYMBOL res 512 80 R0
SYMATTR InstName R1
SYMATTR Value 10k
SYMBOL res 608 80 R0
SYMATTR InstName R2
SYMATTR Value 10k
SYMBOL nmos 352 96 R0
SYMATTR InstName M2
TEXT -24 416 Left 2 !.model nmos NMOS(kp=100u, vt0=0.5, L=10u, W=20u)
TEXT -8 464 Left 2 !.op
